/*--------------------------------*- C++ -*----------------------------------*\
  =========                 |
  \\      /  F ield         | OpenFOAM: The Open Source CFD Toolbox
   \\    /   O peration     | Website:  https://openfoam.org
    \\  /    A nd           | Version:  7
     \\/     M anipulation  |
\*---------------------------------------------------------------------------*/
FoamFile
{
    version     2.0;
    format      ascii;
    class       polyBoundaryMesh;
    location    "constant/polyMesh";
    object      boundary;
}
// * * * * * * * * * * * * * * * * * * * * * * * * * * * * * * * * * * * * * //

5
(
    back
    {
        type            empty;
        nFaces          591;
        startFace       1111;
    }
    ingreso
    {
        type            patch;
        nFaces          14;
        startFace       1702;
    }
    salida
    {
        type            patch;
        nFaces          2;
        startFace       1716;
    }
    front
    {
        type            empty;
        nFaces          591;
        startFace       1718;
    }
    defaultFaces
    {
        type            wall;
        nFaces          126;
        startFace       2309;
    }
)

// ************************************************************************* //
