/*--------------------------------*- C++ -*----------------------------------*\
  =========                 |
  \\      /  F ield         | OpenFOAM: The Open Source CFD Toolbox
   \\    /   O peration     | Website:  https://openfoam.org
    \\  /    A nd           | Version:  8
     \\/     M anipulation  |
\*---------------------------------------------------------------------------*/
FoamFile
{
    version     2.0;
    format      ascii;
    class       polyBoundaryMesh;
    location    "constant/polyMesh";
    object      boundary;
}
// * * * * * * * * * * * * * * * * * * * * * * * * * * * * * * * * * * * * * //

5
(
    back
    {
        type            empty;
        nFaces          5119;
        startFace       9048;
    }
    front
    {
        type            empty;
        nFaces          5119;
        startFace       14167;
    }
    ingreso
    {
        type            patch;
        nFaces          26;
        startFace       19286;
    }
    salida
    {
        type            patch;
        nFaces          40;
        startFace       19312;
    }
    defaultFaces
    {
        type            wall;
        nFaces          939;
        startFace       19352;
    }
)

// ************************************************************************* //
