/*--------------------------------*- C++ -*----------------------------------*\
  =========                 |
  \\      /  F ield         | OpenFOAM: The Open Source CFD Toolbox
   \\    /   O peration     | Website:  https://openfoam.org
    \\  /    A nd           | Version:  8
     \\/     M anipulation  |
\*---------------------------------------------------------------------------*/
FoamFile
{
    version     2.0;
    format      ascii;
    class       polyBoundaryMesh;
    location    "constant/polyMesh";
    object      boundary;
}
// * * * * * * * * * * * * * * * * * * * * * * * * * * * * * * * * * * * * * //

5
(
    back
    {
        type            empty;
        nFaces          4320;
        startFace       8330;
    }
    ingreso
    {
        type            patch;
        nFaces          20;
        startFace       12650;
    }
    salida
    {
        type            patch;
        nFaces          12;
        startFace       12670;
    }
    front
    {
        type            empty;
        nFaces          4320;
        startFace       12682;
    }
    defaultFaces
    {
        type            wall;
        nFaces          588;
        startFace       17002;
    }
)

// ************************************************************************* //
