/*--------------------------------*- C++ -*----------------------------------*\
  =========                 |
  \\      /  F ield         | OpenFOAM: The Open Source CFD Toolbox
   \\    /   O peration     | Website:  https://openfoam.org
    \\  /    A nd           | Version:  8
     \\/     M anipulation  |
\*---------------------------------------------------------------------------*/
FoamFile
{
    version     2.0;
    format      ascii;
    class       polyBoundaryMesh;
    location    "constant/polyMesh";
    object      boundary;
}
// * * * * * * * * * * * * * * * * * * * * * * * * * * * * * * * * * * * * * //

5
(
    back
    {
        type            patch;
        physicalType    patch;
        nFaces          3435;
        startFace       16866;
    }
    ingreso
    {
        type            patch;
        physicalType    patch;
        nFaces          22;
        startFace       20301;
    }
    salida
    {
        type            patch;
        physicalType    patch;
        nFaces          12;
        startFace       20323;
    }
    front
    {
        type            patch;
        physicalType    patch;
        nFaces          3435;
        startFace       20335;
    }
    defaultFaces
    {
        type            patch;
        nFaces          584;
        startFace       23770;
    }
)

// ************************************************************************* //
