/*--------------------------------*- C++ -*----------------------------------*\
  =========                 |
  \\      /  F ield         | OpenFOAM: The Open Source CFD Toolbox
   \\    /   O peration     | Website:  https://openfoam.org
    \\  /    A nd           | Version:  8
     \\/     M anipulation  |
\*---------------------------------------------------------------------------*/
FoamFile
{
    version     2.0;
    format      ascii;
    class       polyBoundaryMesh;
    location    "constant/polyMesh";
    object      boundary;
}
// * * * * * * * * * * * * * * * * * * * * * * * * * * * * * * * * * * * * * //

5
(
    back
    {
        type            patch;
        physicalType    patch;
        nFaces          2707;
        startFace       5187;
    }
    ingreso
    {
        type            patch;
        physicalType    patch;
        nFaces          20;
        startFace       7894;
    }
    salida
    {
        type            patch;
        physicalType    patch;
        nFaces          12;
        startFace       7914;
    }
    front
    {
        type            patch;
        physicalType    patch;
        nFaces          2707;
        startFace       7926;
    }
    defaultFaces
    {
        type            patch;
        nFaces          422;
        startFace       10633;
    }
)

// ************************************************************************* //
