/*--------------------------------*- C++ -*----------------------------------*\
  =========                 |
  \\      /  F ield         | OpenFOAM: The Open Source CFD Toolbox
   \\    /   O peration     | Website:  https://openfoam.org
    \\  /    A nd           | Version:  8
     \\/     M anipulation  |
\*---------------------------------------------------------------------------*/
FoamFile
{
    version     2.0;
    format      ascii;
    class       polyBoundaryMesh;
    location    "constant/polyMesh";
    object      boundary;
}
// * * * * * * * * * * * * * * * * * * * * * * * * * * * * * * * * * * * * * //

5
(
    back
    {
        type            empty;
        nFaces          17372;
        startFace       33977;
    }
    ingreso
    {
        type            patch;
        nFaces          42;
        startFace       51349;
    }
    salida
    {
        type            patch;
        nFaces          40;
        startFace       51391;
    }
    front
    {
        type            empty;
        nFaces          17372;
        startFace       51431;
    }
    defaultFaces
    {
        type            wall;
        nFaces          1452;
        startFace       68803;
    }
)

// ************************************************************************* //
