/*--------------------------------*- C++ -*----------------------------------*\
  =========                 |
  \\      /  F ield         | OpenFOAM: The Open Source CFD Toolbox
   \\    /   O peration     | Website:  https://openfoam.org
    \\  /    A nd           | Version:  8
     \\/     M anipulation  |
\*---------------------------------------------------------------------------*/
FoamFile
{
    version     2.0;
    format      ascii;
    class       polyBoundaryMesh;
    location    "constant/polyMesh";
    object      boundary;
}
// * * * * * * * * * * * * * * * * * * * * * * * * * * * * * * * * * * * * * //

5
(
    back
    {
        type            patch;
        physicalType    patch;
        nFaces          4280;
        startFace       8224;
    }
    front
    {
        type            patch;
        physicalType    patch;
        nFaces          4280;
        startFace       12504;
    }
    ingreso
    {
        type            patch;
        physicalType    patch;
        nFaces          14;
        startFace       16784;
    }
    salida
    {
        type            patch;
        physicalType    patch;
        nFaces          20;
        startFace       16798;
    }
    defaultFaces
    {
        type            patch;
        nFaces          636;
        startFace       16818;
    }
)

// ************************************************************************* //
