/*--------------------------------*- C++ -*----------------------------------*\
  =========                 |
  \\      /  F ield         | OpenFOAM: The Open Source CFD Toolbox
   \\    /   O peration     | Website:  https://openfoam.org
    \\  /    A nd           | Version:  8
     \\/     M anipulation  |
\*---------------------------------------------------------------------------*/
FoamFile
{
    version     2.0;
    format      ascii;
    class       polyBoundaryMesh;
    location    "constant/polyMesh";
    object      boundary;
}
// * * * * * * * * * * * * * * * * * * * * * * * * * * * * * * * * * * * * * //

5
(
    back
    {
        type            empty;
        nFaces          6388;
        startFace       11624;
    }
    front
    {
        type            empty;
        nFaces          6388;
        startFace       18012;
    }
    ingreso
    {
        type            patch;
        nFaces          26;
        startFace       24400;
    }
    salida
    {
        type            patch;
        nFaces          40;
        startFace       24426;
    }
    defaultFaces
    {
        type            wall;
        nFaces          1255;
        startFace       24466;
    }
)

// ************************************************************************* //
