/*--------------------------------*- C++ -*----------------------------------*\
  =========                 |
  \\      /  F ield         | OpenFOAM: The Open Source CFD Toolbox
   \\    /   O peration     | Website:  https://openfoam.org
    \\  /    A nd           | Version:  8
     \\/     M anipulation  |
\*---------------------------------------------------------------------------*/
FoamFile
{
    version     2.0;
    format      ascii;
    class       polyBoundaryMesh;
    location    "constant/polyMesh";
    object      boundary;
}
// * * * * * * * * * * * * * * * * * * * * * * * * * * * * * * * * * * * * * //

5
(
    back
    {
        type            empty;
        nFaces          3080;
        startFace       5897;
    }
    ingreso
    {
        type            patch;
        nFaces          28;
        startFace       8977;
    }
    salida
    {
        type            patch;
        nFaces          12;
        startFace       9005;
    }
    front
    {
        type            empty;
        nFaces          3080;
        startFace       9017;
    }
    defaultFaces
    {
        type            wall;
        nFaces          486;
        startFace       12097;
    }
)

// ************************************************************************* //
