/*--------------------------------*- C++ -*----------------------------------*\
  =========                 |
  \\      /  F ield         | OpenFOAM: The Open Source CFD Toolbox
   \\    /   O peration     | Website:  https://openfoam.org
    \\  /    A nd           | Version:  8
     \\/     M anipulation  |
\*---------------------------------------------------------------------------*/
FoamFile
{
    version     2.0;
    format      ascii;
    class       polyBoundaryMesh;
    location    "constant/polyMesh";
    object      boundary;
}
// * * * * * * * * * * * * * * * * * * * * * * * * * * * * * * * * * * * * * //

5
(
    back
    {
        type            empty;
        nFaces          5490;
        startFace       10659;
    }
    ingreso
    {
        type            patch;
        nFaces          26;
        startFace       16149;
    }
    salida
    {
        type            patch;
        nFaces          18;
        startFace       16175;
    }
    front
    {
        type            empty;
        nFaces          5490;
        startFace       16193;
    }
    defaultFaces
    {
        type            wall;
        nFaces          598;
        startFace       21683;
    }
)

// ************************************************************************* //
