/*--------------------------------*- C++ -*----------------------------------*\
  =========                 |
  \\      /  F ield         | OpenFOAM: The Open Source CFD Toolbox
   \\    /   O peration     | Website:  https://openfoam.org
    \\  /    A nd           | Version:  8
     \\/     M anipulation  |
\*---------------------------------------------------------------------------*/
FoamFile
{
    version     2.0;
    format      ascii;
    class       polyBoundaryMesh;
    location    "constant/polyMesh";
    object      boundary;
}
// * * * * * * * * * * * * * * * * * * * * * * * * * * * * * * * * * * * * * //

5
(
    back
    {
        type            empty;
        nFaces          7843;
        startFace       15173;
    }
    ingreso
    {
        type            patch;
        nFaces          28;
        startFace       23016;
    }
    salida
    {
        type            patch;
        nFaces          30;
        startFace       23044;
    }
    front
    {
        type            empty;
        nFaces          7843;
        startFace       23074;
    }
    defaultFaces
    {
        type            wall;
        nFaces          968;
        startFace       30917;
    }
)

// ************************************************************************* //
