/*--------------------------------*- C++ -*----------------------------------*\
  =========                 |
  \\      /  F ield         | OpenFOAM: The Open Source CFD Toolbox
   \\    /   O peration     | Website:  https://openfoam.org
    \\  /    A nd           | Version:  8
     \\/     M anipulation  |
\*---------------------------------------------------------------------------*/
FoamFile
{
    version     2.0;
    format      ascii;
    class       polyBoundaryMesh;
    location    "constant/polyMesh";
    object      boundary;
}
// * * * * * * * * * * * * * * * * * * * * * * * * * * * * * * * * * * * * * //

5
(
    back
    {
        type            empty;
        nFaces          1642;
        startFace       3021;
    }
    front
    {
        type            empty;
        nFaces          1642;
        startFace       4663;
    }
    ingreso
    {
        type            patch;
        nFaces          14;
        startFace       6305;
    }
    salida
    {
        type            patch;
        nFaces          6;
        startFace       6319;
    }
    defaultFaces
    {
        type            wall;
        nFaces          500;
        startFace       6325;
    }
)

// ************************************************************************* //
